
job aborted:
[ranks] message

[0-2] process exited without calling init

[3-6] process exited without calling finalize

---- error analysis -----

[0-2] on EIME-351-2012
reactingFoam ended before calling init and may have crashed. exit code -1

[3-6] on EIME-351-2012
reactingFoam ended prematurely and may have crashed. exit code -1

---- error analysis -----
